#======================================================================

# CRYSTAL DATA

#----------------------------------------------------------------------

data_VESTA_phase_1


_chemical_name_common                  ''
_cell_length_a                         5.43283
_cell_length_b                         5.43283
_cell_length_c                         5.43283
_cell_angle_alpha                      56.57267
_cell_angle_beta                       56.57267
_cell_angle_gamma                      56.57267
_space_group_name_H-M_alt              'R -3 c'
_space_group_IT_number                 167

loop_
_space_group_symop_operation_xyz
   'x, y, z'
   '-x, -y, -z'
   'z, x, y'
   '-z, -x, -y'
   'y, z, x'
   '-y, -z, -x'
   '-y+1/2, -x+1/2, -z+1/2'
   'y+1/2, x+1/2, z+1/2'
   '-x+1/2, -z+1/2, -y+1/2'
   'x+1/2, z+1/2, y+1/2'
   '-z+1/2, -y+1/2, -x+1/2'
   'z+1/2, y+1/2, x+1/2'

loop_
   _atom_site_label
   _atom_site_occupancy
   _atom_site_fract_x
   _atom_site_fract_y
   _atom_site_fract_z
   _atom_site_adp_type
   _atom_site_B_iso_or_equiv
   _atom_site_type_symbol
   Ti         1.0     0.345000      0.345000      0.345000     Biso  1.000000 Ti
   O          1.0     0.567000     -0.067000      0.250000     Biso  1.000000 O
