#======================================================================

# CRYSTAL DATA

#----------------------------------------------------------------------

data_VESTA_phase_1


_chemical_name_common                  '(ca.8 y.38 la.06 ce.24 pr.04 nd.16 sm.'
_cell_length_a                         4.77080
_cell_length_b                         7.62290
_cell_length_c                         9.89750
_cell_angle_alpha                      90
_cell_angle_beta                       90.01700
_cell_angle_gamma                      90
_space_group_name_H-M_alt              'P 21/c'
_space_group_IT_number                 14

loop_
_space_group_symop_operation_xyz
   'x, y, z'
   '-x, -y, -z'
   '-x, y+1/2, -z+1/2'
   'x, -y+1/2, z+1/2'

loop_
   _atom_site_label
   _atom_site_occupancy
   _atom_site_fract_x
   _atom_site_fract_y
   _atom_site_fract_z
   _atom_site_adp_type
   _atom_site_U_iso_or_equiv
   _atom_site_type_symbol
   CaA        0.4000  0.995800      0.106800      0.330900     Uiso  0.008334 Ca
   YA         0.1900  0.995800      0.106800      0.330900     Uiso  0.008334 Ya
   LaA        0.0300  0.995800      0.106800      0.330900     Uiso  0.008334 La
   CeA        0.1200  0.995800      0.106800      0.330900     Uiso  0.008334 Ce
   PrA        0.0200  0.995800      0.106800      0.330900     Uiso  0.008334 Pr
   NdA        0.0800  0.995800      0.106800      0.330900     Uiso  0.008334 Nd
   SmA        0.0200  0.995800      0.106800      0.330900     Uiso  0.008334 Sm
   EuA        1.0     0.995800      0.106800      0.330900     Uiso  0.008334 Eu
   GdA        0.0200  0.995800      0.106800      0.330900     Uiso  0.008334 Gd
   DyA        0.0200  0.995800      0.106800      0.330900     Uiso  0.008334 Dy
   ErA        0.0100  0.995800      0.106800      0.330900     Uiso  0.008334 Er
   YbA        0.0100  0.995800      0.106800      0.330900     Uiso  0.008334 Yb
   ThA        0.0700  0.995800      0.106800      0.330900     Uiso  0.008334 Th
   UA         0.0100  0.995800      0.106800      0.330900     Uiso  0.008334 Ua
   Fe2+X      0.5000  0.000000      0.000000      0.000000     Uiso  0.007000 Fe
   LiX        0.2300  0.000000      0.000000      0.000000     Uiso  0.007000 Li
   Fe3+X      0.2100  0.000000      0.000000      0.000000     Uiso  0.007000 Fe
   MnX        0.0300  0.000000      0.000000      0.000000     Uiso  0.007000 Mn
   MgX        0.0200  0.000000      0.000000      0.000000     Uiso  0.007000 Mg
   SiZ        0.5000  0.546200      0.410600      0.338400     Uiso  0.005667 Si
   BeZ        0.2700  0.546200      0.410600      0.338400     Uiso  0.005667 Be
   BZ         0.2000  0.546200      0.410600      0.338400     Uiso  0.005667 Bz
   LiZ        0.0300  0.546200      0.410600      0.338400     Uiso  0.005667 Li
   SiT        0.5000  0.476500      0.270400      0.081300     Uiso  0.006333 Si
   BeT        0.2700  0.476500      0.270400      0.081300     Uiso  0.006333 Be
   BT         0.2000  0.476500      0.270400      0.081300     Uiso  0.006333 Bt
   LiT        0.0300  0.476500      0.270400      0.081300     Uiso  0.006333 Li
   O1         1.0     0.240800      0.405200      0.034300     Uiso  0.010333 O
   O2         1.0     0.672300      0.292400      0.454200     Uiso  0.011332 O
   O3         1.0     0.683400      0.340100      0.202400     Uiso  0.012000 O
   O4         1.0     0.317300      0.096800      0.143200     Uiso  0.010666 O
   O5         1.0     0.227000      0.410500      0.335000     Uiso  0.011000 O

loop_
   _atom_site_aniso_label
   _atom_site_aniso_U_11
   _atom_site_aniso_U_22
   _atom_site_aniso_U_33
   _atom_site_aniso_U_12
   _atom_site_aniso_U_13
   _atom_site_aniso_U_23
   CaA	 0.00800  0.00900  0.00800  0.00100 -0.00100  0.00000
   YA	 0.00800  0.00900  0.00800  0.00100 -0.00100  0.00000
   LaA	 0.00800  0.00900  0.00800  0.00100 -0.00100  0.00000
   CeA	 0.00800  0.00900  0.00800  0.00100 -0.00100  0.00000
   PrA	 0.00800  0.00900  0.00800  0.00100 -0.00100  0.00000
   NdA	 0.00800  0.00900  0.00800  0.00100 -0.00100  0.00000
   SmA	 0.00800  0.00900  0.00800  0.00100 -0.00100  0.00000
   EuA	 0.00800  0.00900  0.00800  0.00100 -0.00100  0.00000
   GdA	 0.00800  0.00900  0.00800  0.00100 -0.00100  0.00000
   DyA	 0.00800  0.00900  0.00800  0.00100 -0.00100  0.00000
   ErA	 0.00800  0.00900  0.00800  0.00100 -0.00100  0.00000
   YbA	 0.00800  0.00900  0.00800  0.00100 -0.00100  0.00000
   ThA	 0.00800  0.00900  0.00800  0.00100 -0.00100  0.00000
   UA	 0.00800  0.00900  0.00800  0.00100 -0.00100  0.00000
   Fe2+X	 0.00600  0.00800  0.00700  0.00100 -0.00100  0.00100
   LiX	 0.00600  0.00800  0.00700  0.00100 -0.00100  0.00100
   Fe3+X	 0.00600  0.00800  0.00700  0.00100 -0.00100  0.00100
   MnX	 0.00600  0.00800  0.00700  0.00100 -0.00100  0.00100
   MgX	 0.00600  0.00800  0.00700  0.00100 -0.00100  0.00100
   SiZ	 0.00500  0.00600  0.00600 -0.00100 -0.00100  0.00000
   BeZ	 0.00500  0.00600  0.00600 -0.00100 -0.00100  0.00000
   BZ	 0.00500  0.00600  0.00600 -0.00100 -0.00100  0.00000
   LiZ	 0.00500  0.00600  0.00600 -0.00100 -0.00100  0.00000
   SiT	 0.00700  0.00600  0.00600 -0.00100  0.00000  0.00000
   BeT	 0.00700  0.00600  0.00600 -0.00100  0.00000  0.00000
   BT	 0.00700  0.00600  0.00600 -0.00100  0.00000  0.00000
   LiT	 0.00700  0.00600  0.00600 -0.00100  0.00000  0.00000
   O1	 0.00800  0.01300  0.01000  0.00100  0.00000  0.00100
   O2	 0.01300  0.00900  0.01200  0.00000  0.00500  0.00100
   O3	 0.01300  0.01300  0.01000 -0.00300 -0.00200  0.00000
   O4	 0.01500  0.00900  0.00800 -0.00500  0.00300  0.00100
   O5	 0.01000  0.01300  0.01000  0.00100  0.00000  0.00000
